6lu7_ligand.pdbqt
     RDKit          3D

101103  0  0  0  0  0  0  0  0999 V2000
    0.3888    1.8792   -0.9864 C   0  0  1  0  0  0  0  0  0  0  0  0
    1.0445    2.1388   -2.3509 C   0  0  0  0  0  0  0  0  0  0  0  0
    2.4722    1.5759   -2.5001 C   0  0  0  0  0  0  0  0  0  0  0  0
    3.4430    2.1782   -1.4840 C   0  0  0  0  0  0  0  0  0  0  0  0
    2.9821    1.8331   -3.9207 C   0  0  0  0  0  0  0  0  0  0  0  0
   -1.0508    2.3961   -0.9670 C   0  0  0  0  0  0  0  0  0  0  0  0
   -1.1147    3.7786   -1.0726 N   0  0  0  0  0  0  0  0  0  0  0  0
   -2.0310    1.6593   -0.8785 O   0  0  0  0  0  0  0  0  0  0  0  0
   -2.3735    4.5140   -1.0718 C   0  0  1  0  0  0  0  0  0  0  0  0
   -2.9209    4.7192    0.3583 C   0  0  0  0  0  0  0  0  0  0  0  0
   -2.1197    5.6507    1.2804 C   0  0  1  0  0  0  0  0  0  0  0  0
   -2.8006    5.9222    2.6247 C   0  0  1  0  0  0  0  0  0  0  0  0
   -3.3127    4.7269    3.1997 O   0  0  0  0  0  0  0  0  0  0  0  0
   -0.7528    5.1149    1.7094 C   0  0  0  0  0  0  0  0  0  0  0  0
   -0.5192    5.6984    3.1002 C   0  0  0  0  0  0  0  0  0  0  0  0
   -1.7083    6.4922    3.4105 N   0  0  0  0  0  0  0  0  0  0  0  0
   -2.2484    5.8268   -1.8664 C   0  0  0  0  0  0  0  0  0  0  0  0
   -1.7945    5.6401   -3.3158 C   0  0  0  0  0  0  0  0  0  0  0  0
   -2.7308    4.7589   -4.1048 C   0  0  0  0  0  0  0  0  0  0  0  0
   -3.8319    5.1143   -4.5030 O   0  0  0  0  0  0  0  0  0  0  0  0
   -2.1730    3.5254   -4.2663 O   0  0  0  0  0  0  0  0  0  0  0  0
   -2.9685    2.5549   -4.9619 C   0  0  0  0  0  0  0  0  0  0  0  0
   -2.2616    1.2314   -4.8762 C   0  0  0  0  0  0  0  0  0  0  0  0
   -1.1845    0.9474   -5.7264 C   0  0  0  0  0  0  0  0  0  0  0  0
   -0.4999   -0.2643   -5.6196 C   0  0  0  0  0  0  0  0  0  0  0  0
   -0.8820   -1.2002   -4.6604 C   0  0  0  0  0  0  0  0  0  0  0  0
   -1.9502   -0.9264   -3.8088 C   0  0  0  0  0  0  0  0  0  0  0  0
   -2.6361    0.2847   -3.9140 C   0  0  0  0  0  0  0  0  0  0  0  0
    0.3228    0.4531   -0.6996 N   0  0  0  0  0  0  0  0  0  0  0  0
    0.4616   -0.0659    0.5807 C   0  0  0  0  0  0  0  0  0  0  0  0
    0.7443    0.5950    1.5779 O   0  0  0  0  0  0  0  0  0  0  0  0
    0.1985   -1.5721    0.6237 C   0  0  2  0  0  0  0  0  0  0  0  0
   -1.2955   -1.9098    0.4128 C   0  0  0  0  0  0  0  0  0  0  0  0
   -1.5004   -3.4222    0.2853 C   0  0  0  0  0  0  0  0  0  0  0  0
   -2.2105   -1.3487    1.5062 C   0  0  0  0  0  0  0  0  0  0  0  0
    0.7151   -2.0697    1.8927 N   0  0  0  0  0  0  0  0  0  0  0  0
    1.9909   -2.6034    2.0296 C   0  0  0  0  0  0  0  0  0  0  0  0
    2.7752   -2.7943    1.1026 O   0  0  0  0  0  0  0  0  0  0  0  0
    2.3287   -2.9174    3.4853 C   0  0  2  0  0  0  0  0  0  0  0  0
    2.5694   -1.6381    4.2763 C   0  0  0  0  0  0  0  0  0  0  0  0
    3.5235   -3.7520    3.4945 N   0  0  0  0  0  0  0  0  0  0  0  0
    3.4680   -5.1402    3.4974 C   0  0  0  0  0  0  0  0  0  0  0  0
    2.4249   -5.7858    3.5774 O   0  0  0  0  0  0  0  0  0  0  0  0
    4.7634   -5.8010    3.3902 C   0  0  0  0  0  0  0  0  0  0  0  0
    4.8140   -7.1425    3.3526 N   0  0  0  0  0  0  0  0  0  0  0  0
    6.1525   -7.4741    3.2514 O   0  0  0  0  0  0  0  0  0  0  0  0
    6.8999   -6.3406    3.2302 C   0  0  0  0  0  0  0  0  0  0  0  0
    8.3586   -6.5132    3.1261 C   0  0  0  0  0  0  0  0  0  0  0  0
    6.0697   -5.2519    3.3162 C   0  0  0  0  0  0  0  0  0  0  0  0
    0.9346    2.3837   -0.1815 H   0  0  0  0  0  0  0  0  0  0  0  0
    0.4131    1.7024   -3.1351 H   0  0  0  0  0  0  0  0  0  0  0  0
    1.0648    3.2178   -2.5513 H   0  0  0  0  0  0  0  0  0  0  0  0
    2.4489    0.4894   -2.3509 H   0  0  0  0  0  0  0  0  0  0  0  0
    3.1728    1.8996   -0.4610 H   0  0  0  0  0  0  0  0  0  0  0  0
    4.4620    1.8165   -1.6591 H   0  0  0  0  0  0  0  0  0  0  0  0
    3.4571    3.2714   -1.5483 H   0  0  0  0  0  0  0  0  0  0  0  0
    3.9808    1.4056   -4.0591 H   0  0  0  0  0  0  0  0  0  0  0  0
    3.0398    2.9058   -4.1347 H   0  0  0  0  0  0  0  0  0  0  0  0
    2.3187    1.3745   -4.6614 H   0  0  0  0  0  0  0  0  0  0  0  0
   -0.2549    4.3146   -1.0037 H   0  0  0  0  0  0  0  0  0  0  0  0
   -3.1071    3.8758   -1.5814 H   0  0  0  0  0  0  0  0  0  0  0  0
   -3.0267    3.7364    0.8356 H   0  0  0  0  0  0  0  0  0  0  0  0
   -3.9380    5.1243    0.2704 H   0  0  0  0  0  0  0  0  0  0  0  0
   -1.9698    6.6188    0.7844 H   0  0  0  0  0  0  0  0  0  0  0  0
   -3.6249    6.6344    2.5182 H   0  0  0  0  0  0  0  0  0  0  0  0
   -3.5785    4.9444    4.1090 H   0  0  0  0  0  0  0  0  0  0  0  0
    0.0310    5.4271    1.0117 H   0  0  0  0  0  0  0  0  0  0  0  0
   -0.7486    4.0202    1.7653 H   0  0  0  0  0  0  0  0  0  0  0  0
   -0.3916    4.8921    3.8314 H   0  0  0  0  0  0  0  0  0  0  0  0
    0.3767    6.3259    3.1289 H   0  0  0  0  0  0  0  0  0  0  0  0
   -1.9193    6.4595    4.4059 H   0  0  0  0  0  0  0  0  0  0  0  0
   -1.5245    6.4930   -1.3832 H   0  0  0  0  0  0  0  0  0  0  0  0
   -3.2170    6.3418   -1.8567 H   0  0  0  0  0  0  0  0  0  0  0  0
   -0.7772    5.2341   -3.3609 H   0  0  0  0  0  0  0  0  0  0  0  0
   -1.7500    6.6106   -3.8240 H   0  0  0  0  0  0  0  0  0  0  0  0
   -3.0823    2.8565   -6.0098 H   0  0  0  0  0  0  0  0  0  0  0  0
   -3.9647    2.4892   -4.5082 H   0  0  0  0  0  0  0  0  0  0  0  0
   -0.8680    1.6726   -6.4719 H   0  0  0  0  0  0  0  0  0  0  0  0
    0.3353   -0.4751   -6.2812 H   0  0  0  0  0  0  0  0  0  0  0  0
   -0.3468   -2.1413   -4.5755 H   0  0  0  0  0  0  0  0  0  0  0  0
   -2.2473   -1.6543   -3.0596 H   0  0  0  0  0  0  0  0  0  0  0  0
   -3.4607    0.4868   -3.2351 H   0  0  0  0  0  0  0  0  0  0  0  0
   -0.0255   -0.1531   -1.4367 H   0  0  0  0  0  0  0  0  0  0  0  0
    0.7878   -2.0259   -0.1838 H   0  0  0  0  0  0  0  0  0  0  0  0
   -1.6212   -1.4616   -0.5342 H   0  0  0  0  0  0  0  0  0  0  0  0
   -2.5453   -3.6519    0.0506 H   0  0  0  0  0  0  0  0  0  0  0  0
   -0.8814   -3.8316   -0.5200 H   0  0  0  0  0  0  0  0  0  0  0  0
   -1.2429   -3.9445    1.2127 H   0  0  0  0  0  0  0  0  0  0  0  0
   -3.2602   -1.5479    1.2631 H   0  0  0  0  0  0  0  0  0  0  0  0
   -2.0079   -1.8030    2.4811 H   0  0  0  0  0  0  0  0  0  0  0  0
   -2.0982   -0.2644    1.6026 H   0  0  0  0  0  0  0  0  0  0  0  0
    0.2062   -1.8206    2.7353 H   0  0  0  0  0  0  0  0  0  0  0  0
    1.4994   -3.4829    3.9255 H   0  0  0  0  0  0  0  0  0  0  0  0
    2.8736   -1.8681    5.3030 H   0  0  0  0  0  0  0  0  0  0  0  0
    3.3628   -1.0343    3.8210 H   0  0  0  0  0  0  0  0  0  0  0  0
    1.6683   -1.0182    4.3211 H   0  0  0  0  0  0  0  0  0  0  0  0
    4.4049   -3.2861    3.3044 H   0  0  0  0  0  0  0  0  0  0  0  0
    8.6173   -7.0440    2.2048 H   0  0  0  0  0  0  0  0  0  0  0  0
    8.8695   -5.5454    3.1160 H   0  0  0  0  0  0  0  0  0  0  0  0
    8.7383   -7.0895    3.9752 H   0  0  0  0  0  0  0  0  0  0  0  0
    6.3732   -4.2153    3.3247 H   0  0  0  0  0  0  0  0  0  0  0  0
 16 15  1  0
 16 12  1  0
 13 12  1  0
 15 14  1  0
 12 11  1  0
 14 11  1  0
 10 11  1  0
 10  9  1  0
 18 17  1  0
 18 19  1  0
 17  9  1  0
 21 19  1  0
 21 22  1  0
  9  7  1  0
 19 20  2  0
 22 23  1  0
 24 23  2  0
 24 25  1  0
 23 28  1  0
 25 26  2  0
  7  6  1  0
 26 27  1  0
 28 27  2  0
 35 33  1  0
  8  6  2  0
 31 30  2  0
  6  1  1  0
 33 34  1  0
 33 32  1  0
 30 32  1  0
 30 29  1  0
 32 36  1  0
  1 29  1  0
  1  2  1  0
 36 37  1  0
  2  3  1  0
 43 42  2  0
 37 39  1  0
 37 38  2  0
 39 40  1  0
 39 41  1  0
  3  4  1  0
  3  5  1  0
 42 41  1  0
 42 44  1  0
 49 44  1  0
 49 47  2  0
 44 45  2  0
 47 48  1  0
 47 46  1  0
 45 46  1  0
  1 50  1  1
  2 51  1  0
  2 52  1  0
  3 53  1  0
  4 54  1  0
  4 55  1  0
  4 56  1  0
  5 57  1  0
  5 58  1  0
  5 59  1  0
  7 60  1  0
  9 61  1  6
 10 62  1  0
 10 63  1  0
 11 64  1  6
 12 65  1  6
 13 66  1  0
 14 67  1  0
 14 68  1  0
 15 69  1  0
 15 70  1  0
 16 71  1  0
 17 72  1  0
 17 73  1  0
 18 74  1  0
 18 75  1  0
 22 76  1  0
 22 77  1  0
 24 78  1  0
 25 79  1  0
 26 80  1  0
 27 81  1  0
 28 82  1  0
 29 83  1  0
 32 84  1  6
 33 85  1  0
 34 86  1  0
 34 87  1  0
 34 88  1  0
 35 89  1  0
 35 90  1  0
 35 91  1  0
 36 92  1  0
 39 93  1  1
 40 94  1  0
 40 95  1  0
 40 96  1  0
 41 97  1  0
 48 98  1  0
 48 99  1  0
 48100  1  0
 49101  1  0
M  END
>  <_TriposChargeType>  (1) 
GASTEIGER

>  <energy_abs>  (1) 
74.41503201157984

>  <SMILE>  (1) 
[H]O[C@@]1([H])N([H])C([H])([H])C([H])([H])[C@@]1([H])C([H])([H])[C@]([H])(N([H])C(=O)[C@@]([H])(N([H])C(=O)[C@@]([H])(N([H])C(=O)[C@@]([H])(N([H])C(=O)c1noc(C([H])([H])[H])c1[H])C([H])([H])[H])C([H])(C([H])([H])[H])C([H])([H])[H])C([H])([H])C([H])(C([H])([H])[H])C([H])([H])[H])C([H])([H])C([H])([H])C(=O)OC([H])([H])c1c([H])c([H])c([H])c([H])c1[H]

>  <cluster_no>  (1) 
679

>  <pdb_id>  (1) 
6lu7

>  <initial_id>  (1) 
319

$$$$
