6lu7_ligand.pdbqt
     RDKit          3D

101103  0  0  0  0  0  0  0  0999 V2000
  -31.4486   13.4520   25.7751 C   0  0  1  0  0  0  0  0  0  0  0  0
  -32.1755   12.1906   25.7944 N   0  0  0  0  0  0  0  0  0  0  0  0
  -31.6133   11.0145   26.2722 C   0  0  0  0  0  0  0  0  0  0  0  0
  -30.4419   10.8838   26.6239 O   0  0  0  0  0  0  0  0  0  0  0  0
  -32.6039    9.8547   26.2865 C   0  0  1  0  0  0  0  0  0  0  0  0
  -31.9730    8.8610   25.4248 N   0  0  0  0  0  0  0  0  0  0  0  0
  -32.2468    8.7669   24.0656 C   0  0  0  0  0  0  0  0  0  0  0  0
  -33.1038    9.4228   23.4768 O   0  0  0  0  0  0  0  0  0  0  0  0
  -31.3387    7.7607   23.3638 C   0  0  2  0  0  0  0  0  0  0  0  0
  -29.9195    8.3009   23.2455 C   0  0  0  0  0  0  0  0  0  0  0  0
  -31.8956    7.5064   22.0423 N   0  0  0  0  0  0  0  0  0  0  0  0
  -32.7790    6.4676   21.7819 C   0  0  0  0  0  0  0  0  0  0  0  0
  -33.1050    5.6104   22.5989 O   0  0  0  0  0  0  0  0  0  0  0  0
  -33.3164    6.4686   20.4283 C   0  0  0  0  0  0  0  0  0  0  0  0
  -32.9724    7.4003   19.5259 N   0  0  0  0  0  0  0  0  0  0  0  0
  -33.6692    7.0864   18.3718 O   0  0  0  0  0  0  0  0  0  0  0  0
  -34.4230    5.9757   18.5845 C   0  0  0  0  0  0  0  0  0  0  0  0
  -35.2335    5.5009   17.4505 C   0  0  0  0  0  0  0  0  0  0  0  0
  -34.2359    5.5439   19.8727 C   0  0  0  0  0  0  0  0  0  0  0  0
  -32.8127    9.3171   27.7169 C   0  0  0  0  0  0  0  0  0  0  0  0
  -33.7346    8.0925   27.7157 C   0  0  0  0  0  0  0  0  0  0  0  0
  -33.4029   10.3920   28.6356 C   0  0  0  0  0  0  0  0  0  0  0  0
  -31.8222   14.3157   24.5646 C   0  0  0  0  0  0  0  0  0  0  0  0
  -31.0859   13.9404   23.2609 C   0  0  0  0  0  0  0  0  0  0  0  0
  -31.4012   12.5268   22.7720 C   0  0  0  0  0  0  0  0  0  0  0  0
  -31.4356   14.9501   22.1635 C   0  0  0  0  0  0  0  0  0  0  0  0
  -31.8141   14.1639   27.0766 C   0  0  0  0  0  0  0  0  0  0  0  0
  -32.8659   13.9565   27.6785 O   0  0  0  0  0  0  0  0  0  0  0  0
  -30.8425   15.0749   27.4706 N   0  0  0  0  0  0  0  0  0  0  0  0
  -30.8429   15.7164   28.7844 C   0  0  2  0  0  0  0  0  0  0  0  0
  -30.5001   17.2146   28.6635 C   0  0  0  0  0  0  0  0  0  0  0  0
  -31.5775   18.0301   27.9429 C   0  0  0  0  0  0  0  0  0  0  0  0
  -31.4491   18.0140   26.4366 C   0  0  0  0  0  0  0  0  0  0  0  0
  -30.4127   17.8032   25.8219 O   0  0  0  0  0  0  0  0  0  0  0  0
  -32.6587   18.3260   25.8850 O   0  0  0  0  0  0  0  0  0  0  0  0
  -32.6921   18.4295   24.4543 C   0  0  0  0  0  0  0  0  0  0  0  0
  -34.1287   18.4871   24.0193 C   0  0  0  0  0  0  0  0  0  0  0  0
  -34.8003   19.7143   23.9446 C   0  0  0  0  0  0  0  0  0  0  0  0
  -36.1419   19.7630   23.5626 C   0  0  0  0  0  0  0  0  0  0  0  0
  -36.8250   18.5866   23.2593 C   0  0  0  0  0  0  0  0  0  0  0  0
  -36.1683   17.3601   23.3405 C   0  0  0  0  0  0  0  0  0  0  0  0
  -34.8270   17.3093   23.7223 C   0  0  0  0  0  0  0  0  0  0  0  0
  -29.8215   15.0191   29.7113 C   0  0  0  0  0  0  0  0  0  0  0  0
  -30.1706   13.5646   30.0585 C   0  0  1  0  0  0  0  0  0  0  0  0
  -29.1108   12.8450   30.8947 C   0  0  1  0  0  0  0  0  0  0  0  0
  -28.5914   13.6630   31.9353 O   0  0  0  0  0  0  0  0  0  0  0  0
  -31.4291   13.4154   30.9134 C   0  0  0  0  0  0  0  0  0  0  0  0
  -31.1969   12.1484   31.7305 C   0  0  0  0  0  0  0  0  0  0  0  0
  -29.8463   11.6887   31.4035 N   0  0  0  0  0  0  0  0  0  0  0  0
  -30.3724   13.2424   25.7834 H   0  0  0  0  0  0  0  0  0  0  0  0
  -33.1827   12.2336   25.6688 H   0  0  0  0  0  0  0  0  0  0  0  0
  -33.5620   10.1515   25.8450 H   0  0  0  0  0  0  0  0  0  0  0  0
  -31.1660    8.3669   25.7947 H   0  0  0  0  0  0  0  0  0  0  0  0
  -31.3421    6.8248   23.9342 H   0  0  0  0  0  0  0  0  0  0  0  0
  -29.9039    9.2612   22.7171 H   0  0  0  0  0  0  0  0  0  0  0  0
  -29.2843    7.6041   22.6881 H   0  0  0  0  0  0  0  0  0  0  0  0
  -29.4666    8.4591   24.2294 H   0  0  0  0  0  0  0  0  0  0  0  0
  -31.7741    8.2281   21.3366 H   0  0  0  0  0  0  0  0  0  0  0  0
  -35.9432    6.2725   17.1365 H   0  0  0  0  0  0  0  0  0  0  0  0
  -35.8018    4.6056   17.7207 H   0  0  0  0  0  0  0  0  0  0  0  0
  -34.5932    5.2532   16.5984 H   0  0  0  0  0  0  0  0  0  0  0  0
  -34.6946    4.6874   20.3452 H   0  0  0  0  0  0  0  0  0  0  0  0
  -31.8464    9.0090   28.1381 H   0  0  0  0  0  0  0  0  0  0  0  0
  -34.7133    8.3339   27.2871 H   0  0  0  0  0  0  0  0  0  0  0  0
  -33.8935    7.7253   28.7354 H   0  0  0  0  0  0  0  0  0  0  0  0
  -33.3031    7.2700   27.1363 H   0  0  0  0  0  0  0  0  0  0  0  0
  -34.3526   10.7718   28.2439 H   0  0  0  0  0  0  0  0  0  0  0  0
  -32.7175   11.2375   28.7471 H   0  0  0  0  0  0  0  0  0  0  0  0
  -33.5867    9.9893   29.6376 H   0  0  0  0  0  0  0  0  0  0  0  0
  -32.9075   14.2809   24.4005 H   0  0  0  0  0  0  0  0  0  0  0  0
  -31.5843   15.3620   24.7902 H   0  0  0  0  0  0  0  0  0  0  0  0
  -30.0050   14.0055   23.4397 H   0  0  0  0  0  0  0  0  0  0  0  0
  -32.4812   12.3635   22.6943 H   0  0  0  0  0  0  0  0  0  0  0  0
  -30.9826   11.7727   23.4438 H   0  0  0  0  0  0  0  0  0  0  0  0
  -30.9616   12.3481   21.7846 H   0  0  0  0  0  0  0  0  0  0  0  0
  -32.5094   14.9469   21.9477 H   0  0  0  0  0  0  0  0  0  0  0  0
  -30.9019   14.7189   21.2354 H   0  0  0  0  0  0  0  0  0  0  0  0
  -31.1511   15.9640   22.4625 H   0  0  0  0  0  0  0  0  0  0  0  0
  -29.9882   15.1420   26.9248 H   0  0  0  0  0  0  0  0  0  0  0  0
  -31.8422   15.6215   29.2247 H   0  0  0  0  0  0  0  0  0  0  0  0
  -29.5246   17.3436   28.1790 H   0  0  0  0  0  0  0  0  0  0  0  0
  -30.4054   17.6260   29.6768 H   0  0  0  0  0  0  0  0  0  0  0  0
  -32.5724   17.6718   28.2304 H   0  0  0  0  0  0  0  0  0  0  0  0
  -31.4955   19.0802   28.2476 H   0  0  0  0  0  0  0  0  0  0  0  0
  -32.1623   19.3387   24.1465 H   0  0  0  0  0  0  0  0  0  0  0  0
  -32.1935   17.5706   23.9927 H   0  0  0  0  0  0  0  0  0  0  0  0
  -34.2824   20.6396   24.1840 H   0  0  0  0  0  0  0  0  0  0  0  0
  -36.6545   20.7188   23.5041 H   0  0  0  0  0  0  0  0  0  0  0  0
  -37.8691   18.6255   22.9630 H   0  0  0  0  0  0  0  0  0  0  0  0
  -36.7012   16.4425   23.1087 H   0  0  0  0  0  0  0  0  0  0  0  0
  -34.3302   16.3449   23.7866 H   0  0  0  0  0  0  0  0  0  0  0  0
  -29.7333   15.5988   30.6389 H   0  0  0  0  0  0  0  0  0  0  0  0
  -28.8320   15.0377   29.2352 H   0  0  0  0  0  0  0  0  0  0  0  0
  -30.3127   12.9876   29.1346 H   0  0  0  0  0  0  0  0  0  0  0  0
  -28.2693   12.5242   30.2732 H   0  0  0  0  0  0  0  0  0  0  0  0
  -29.3114   13.8387   32.5633 H   0  0  0  0  0  0  0  0  0  0  0  0
  -32.3279   13.3358   30.2947 H   0  0  0  0  0  0  0  0  0  0  0  0
  -31.5576   14.2724   31.5851 H   0  0  0  0  0  0  0  0  0  0  0  0
  -31.9281   11.3728   31.4836 H   0  0  0  0  0  0  0  0  0  0  0  0
  -31.2847   12.3663   32.8007 H   0  0  0  0  0  0  0  0  0  0  0  0
  -29.3842   11.2969   32.2216 H   0  0  0  0  0  0  0  0  0  0  0  0
 16 15  1  0
 16 17  1  0
 15 14  2  0
 18 17  1  0
 17 19  2  0
 26 24  1  0
 14 19  1  0
 14 12  1  0
 11 12  1  0
 11  9  1  0
 10  9  1  0
  8  7  2  0
 25 24  1  0
 12 13  2  0
 24 23  1  0
  9  7  1  0
  7  6  1  0
 23  1  1  0
  2  1  1  0
  2  3  1  0
  6  5  1  0
  1 27  1  0
  5  3  1  0
  5 20  1  0
  3  4  2  0
 21 20  1  0
 20 22  1  0
 27 28  2  0
 27 29  1  0
 41 42  1  0
 41 40  2  0
 34 33  2  0
 42 37  2  0
 40 39  1  0
 29 30  1  0
 39 38  2  0
 37 38  1  0
 37 36  1  0
 36 35  1  0
 33 35  1  0
 33 32  1  0
 30 31  1  0
 30 43  1  0
 31 32  1  0
 44 43  1  0
 44 47  1  0
 44 45  1  0
 47 48  1  0
 45 46  1  0
 45 49  1  0
 48 49  1  0
  1 50  1  1
  2 51  1  0
  5 52  1  6
  6 53  1  0
  9 54  1  1
 10 55  1  0
 10 56  1  0
 10 57  1  0
 11 58  1  0
 18 59  1  0
 18 60  1  0
 18 61  1  0
 19 62  1  0
 20 63  1  0
 21 64  1  0
 21 65  1  0
 21 66  1  0
 22 67  1  0
 22 68  1  0
 22 69  1  0
 23 70  1  0
 23 71  1  0
 24 72  1  0
 25 73  1  0
 25 74  1  0
 25 75  1  0
 26 76  1  0
 26 77  1  0
 26 78  1  0
 29 79  1  0
 30 80  1  1
 31 81  1  0
 31 82  1  0
 32 83  1  0
 32 84  1  0
 36 85  1  0
 36 86  1  0
 38 87  1  0
 39 88  1  0
 40 89  1  0
 41 90  1  0
 42 91  1  0
 43 92  1  0
 43 93  1  0
 44 94  1  6
 45 95  1  6
 46 96  1  0
 47 97  1  0
 47 98  1  0
 48 99  1  0
 48100  1  0
 49101  1  0
M  END
>  <_TriposChargeType>  (1) 
GASTEIGER

>  <energy_abs>  (1) 
78.21862760462797

>  <SMILE>  (1) 
[H]O[C@@]1([H])N([H])C([H])([H])C([H])([H])[C@@]1([H])C([H])([H])[C@]([H])(N([H])C(=O)[C@@]([H])(N([H])C(=O)[C@@]([H])(N([H])C(=O)[C@@]([H])(N([H])C(=O)c1noc(C([H])([H])[H])c1[H])C([H])([H])[H])C([H])(C([H])([H])[H])C([H])([H])[H])C([H])([H])C([H])(C([H])([H])[H])C([H])([H])[H])C([H])([H])C([H])([H])C(=O)OC([H])([H])c1c([H])c([H])c([H])c([H])c1[H]

$$$$
