6lu7_ligand.pdbqt
     RDKit          3D

101103  0  0  0  0  0  0  0  0999 V2000
   -1.3563    0.5343   -0.3525 C   0  0  1  0  0  0  0  0  0  0  0  0
    0.0317    0.1652   -0.5985 N   0  0  0  0  0  0  0  0  0  0  0  0
    0.8354   -0.4507    0.3505 C   0  0  0  0  0  0  0  0  0  0  0  0
    0.5023   -0.6797    1.5112 O   0  0  0  0  0  0  0  0  0  0  0  0
    2.1993   -0.8426   -0.2198 C   0  0  1  0  0  0  0  0  0  0  0  0
    3.0891   -1.0941    0.9067 N   0  0  0  0  0  0  0  0  0  0  0  0
    3.9334   -0.1223    1.4303 C   0  0  0  0  0  0  0  0  0  0  0  0
    4.0876    1.0021    0.9580 O   0  0  0  0  0  0  0  0  0  0  0  0
    4.6504   -0.6027    2.6899 C   0  0  2  0  0  0  0  0  0  0  0  0
    3.6888   -0.6761    3.8689 C   0  0  0  0  0  0  0  0  0  0  0  0
    5.7292    0.3356    2.9726 N   0  0  0  0  0  0  0  0  0  0  0  0
    7.0232    0.1543    2.5004 C   0  0  0  0  0  0  0  0  0  0  0  0
    7.3956   -0.8408    1.8821 O   0  0  0  0  0  0  0  0  0  0  0  0
    7.9356    1.2546    2.7884 C   0  0  0  0  0  0  0  0  0  0  0  0
    9.2020    1.1892    2.3461 N   0  0  0  0  0  0  0  0  0  0  0  0
    9.8164    2.3548    2.7651 O   0  0  0  0  0  0  0  0  0  0  0  0
    8.9263    3.1135    3.4552 C   0  0  0  0  0  0  0  0  0  0  0  0
    9.4196    4.3987    3.9781 C   0  0  0  0  0  0  0  0  0  0  0  0
    7.7195    2.4629    3.5004 C   0  0  0  0  0  0  0  0  0  0  0  0
    2.0998   -2.0447   -1.1862 C   0  0  0  0  0  0  0  0  0  0  0  0
    3.4369   -2.2880   -1.8920 C   0  0  0  0  0  0  0  0  0  0  0  0
    1.6215   -3.3352   -0.5130 C   0  0  0  0  0  0  0  0  0  0  0  0
   -1.6688    1.9084   -0.9658 C   0  0  0  0  0  0  0  0  0  0  0  0
   -0.7672    3.0595   -0.4732 C   0  0  0  0  0  0  0  0  0  0  0  0
   -0.8501    3.2576    1.0407 C   0  0  0  0  0  0  0  0  0  0  0  0
   -1.1526    4.3588   -1.1857 C   0  0  0  0  0  0  0  0  0  0  0  0
   -2.2147   -0.5720   -0.9741 C   0  0  0  0  0  0  0  0  0  0  0  0
   -1.7406   -1.5160   -1.6041 O   0  0  0  0  0  0  0  0  0  0  0  0
   -3.5710   -0.3937   -0.7345 N   0  0  0  0  0  0  0  0  0  0  0  0
   -4.6047   -1.2390   -1.3331 C   0  0  2  0  0  0  0  0  0  0  0  0
   -4.7171   -0.9761   -2.8486 C   0  0  0  0  0  0  0  0  0  0  0  0
   -5.1145    0.4560   -3.2156 C   0  0  0  0  0  0  0  0  0  0  0  0
   -4.4779    0.8632   -4.5211 C   0  0  0  0  0  0  0  0  0  0  0  0
   -5.0773    0.9476   -5.5838 O   0  0  0  0  0  0  0  0  0  0  0  0
   -3.1498    1.0961   -4.3189 O   0  0  0  0  0  0  0  0  0  0  0  0
   -2.3647    1.4107   -5.4776 C   0  0  0  0  0  0  0  0  0  0  0  0
   -0.9180    1.3096   -5.0824 C   0  0  0  0  0  0  0  0  0  0  0  0
   -0.3067    0.0540   -4.9620 C   0  0  0  0  0  0  0  0  0  0  0  0
    1.0235   -0.0488   -4.5535 C   0  0  0  0  0  0  0  0  0  0  0  0
    1.7515    1.0998   -4.2502 C   0  0  0  0  0  0  0  0  0  0  0  0
    1.1513    2.3526   -4.3613 C   0  0  0  0  0  0  0  0  0  0  0  0
   -0.1774    2.4581   -4.7763 C   0  0  0  0  0  0  0  0  0  0  0  0
   -5.9566   -1.0518   -0.6197 C   0  0  0  0  0  0  0  0  0  0  0  0
   -5.9354   -1.4776    0.8555 C   0  0  1  0  0  0  0  0  0  0  0  0
   -7.2544   -1.2582    1.5958 C   0  0  1  0  0  0  0  0  0  0  0  0
   -8.3654   -1.6827    0.8173 O   0  0  0  0  0  0  0  0  0  0  0  0
   -5.6748   -2.9695    1.0700 C   0  0  0  0  0  0  0  0  0  0  0  0
   -6.4277   -3.3167    2.3509 C   0  0  0  0  0  0  0  0  0  0  0  0
   -7.0692   -2.0773    2.7922 N   0  0  0  0  0  0  0  0  0  0  0  0
   -1.5474    0.5321    0.7262 H   0  0  0  0  0  0  0  0  0  0  0  0
    0.3621    0.2183   -1.5577 H   0  0  0  0  0  0  0  0  0  0  0  0
    2.5835    0.0283   -0.7668 H   0  0  0  0  0  0  0  0  0  0  0  0
    2.9258   -1.9334    1.4544 H   0  0  0  0  0  0  0  0  0  0  0  0
    5.0835   -1.5903    2.4940 H   0  0  0  0  0  0  0  0  0  0  0  0
    4.2186   -0.9592    4.7847 H   0  0  0  0  0  0  0  0  0  0  0  0
    3.2074    0.2922    4.0482 H   0  0  0  0  0  0  0  0  0  0  0  0
    2.8962   -1.4109    3.6953 H   0  0  0  0  0  0  0  0  0  0  0  0
    5.4609    1.2312    3.3676 H   0  0  0  0  0  0  0  0  0  0  0  0
    9.7672    5.0375    3.1605 H   0  0  0  0  0  0  0  0  0  0  0  0
    8.6305    4.9334    4.5158 H   0  0  0  0  0  0  0  0  0  0  0  0
   10.2529    4.2374    4.6688 H   0  0  0  0  0  0  0  0  0  0  0  0
    6.8195    2.8171    3.9813 H   0  0  0  0  0  0  0  0  0  0  0  0
    1.3647   -1.8030   -1.9637 H   0  0  0  0  0  0  0  0  0  0  0  0
    4.2188   -2.5840   -1.1848 H   0  0  0  0  0  0  0  0  0  0  0  0
    3.7721   -1.3844   -2.4121 H   0  0  0  0  0  0  0  0  0  0  0  0
    3.3406   -3.0841   -2.6381 H   0  0  0  0  0  0  0  0  0  0  0  0
    0.6561   -3.1919   -0.0178 H   0  0  0  0  0  0  0  0  0  0  0  0
    1.4918   -4.1276   -1.2585 H   0  0  0  0  0  0  0  0  0  0  0  0
    2.3385   -3.6985    0.2299 H   0  0  0  0  0  0  0  0  0  0  0  0
   -1.5795    1.8371   -2.0568 H   0  0  0  0  0  0  0  0  0  0  0  0
   -2.7152    2.1734   -0.7701 H   0  0  0  0  0  0  0  0  0  0  0  0
    0.2748    2.8376   -0.7346 H   0  0  0  0  0  0  0  0  0  0  0  0
   -0.2594    4.1261    1.3514 H   0  0  0  0  0  0  0  0  0  0  0  0
   -0.4559    2.3904    1.5788 H   0  0  0  0  0  0  0  0  0  0  0  0
   -1.8841    3.4193    1.3636 H   0  0  0  0  0  0  0  0  0  0  0  0
   -0.4926    5.1787   -0.8833 H   0  0  0  0  0  0  0  0  0  0  0  0
   -1.0691    4.2484   -2.2715 H   0  0  0  0  0  0  0  0  0  0  0  0
   -2.1827    4.6497   -0.9530 H   0  0  0  0  0  0  0  0  0  0  0  0
   -3.8773    0.4517   -0.2632 H   0  0  0  0  0  0  0  0  0  0  0  0
   -4.2730   -2.2778   -1.2141 H   0  0  0  0  0  0  0  0  0  0  0  0
   -3.7626   -1.2383   -3.3223 H   0  0  0  0  0  0  0  0  0  0  0  0
   -5.4534   -1.6662   -3.2810 H   0  0  0  0  0  0  0  0  0  0  0  0
   -4.8149    1.1898   -2.4592 H   0  0  0  0  0  0  0  0  0  0  0  0
   -6.2028    0.5388   -3.3143 H   0  0  0  0  0  0  0  0  0  0  0  0
   -2.6109    2.4241   -5.8142 H   0  0  0  0  0  0  0  0  0  0  0  0
   -2.5791    0.7089   -6.2927 H   0  0  0  0  0  0  0  0  0  0  0  0
   -0.8668   -0.8517   -5.1810 H   0  0  0  0  0  0  0  0  0  0  0  0
    1.4895   -1.0258   -4.4655 H   0  0  0  0  0  0  0  0  0  0  0  0
    2.7846    1.0184   -3.9253 H   0  0  0  0  0  0  0  0  0  0  0  0
    1.7166    3.2484   -4.1210 H   0  0  0  0  0  0  0  0  0  0  0  0
   -0.6333    3.4423   -4.8484 H   0  0  0  0  0  0  0  0  0  0  0  0
   -6.2608    0.0015   -0.6698 H   0  0  0  0  0  0  0  0  0  0  0  0
   -6.7203   -1.6270   -1.1581 H   0  0  0  0  0  0  0  0  0  0  0  0
   -5.1519   -0.9160    1.3843 H   0  0  0  0  0  0  0  0  0  0  0  0
   -7.3970   -0.2045    1.8551 H   0  0  0  0  0  0  0  0  0  0  0  0
   -9.1405   -1.6696    1.4038 H   0  0  0  0  0  0  0  0  0  0  0  0
   -4.6026   -3.1720    1.1646 H   0  0  0  0  0  0  0  0  0  0  0  0
   -6.0615   -3.5683    0.2370 H   0  0  0  0  0  0  0  0  0  0  0  0
   -5.7531   -3.6940    3.1253 H   0  0  0  0  0  0  0  0  0  0  0  0
   -7.1787   -4.0891    2.1498 H   0  0  0  0  0  0  0  0  0  0  0  0
   -7.9607   -2.2692    3.2446 H   0  0  0  0  0  0  0  0  0  0  0  0
 16 15  1  0
 16 17  1  0
 15 14  2  0
 18 17  1  0
 17 19  2  0
 26 24  1  0
 14 19  1  0
 14 12  1  0
 11 12  1  0
 11  9  1  0
 10  9  1  0
  8  7  2  0
 25 24  1  0
 12 13  2  0
 24 23  1  0
  9  7  1  0
  7  6  1  0
 23  1  1  0
  2  1  1  0
  2  3  1  0
  6  5  1  0
  1 27  1  0
  5  3  1  0
  5 20  1  0
  3  4  2  0
 21 20  1  0
 20 22  1  0
 27 28  2  0
 27 29  1  0
 41 42  1  0
 41 40  2  0
 34 33  2  0
 42 37  2  0
 40 39  1  0
 29 30  1  0
 39 38  2  0
 37 38  1  0
 37 36  1  0
 36 35  1  0
 33 35  1  0
 33 32  1  0
 30 31  1  0
 30 43  1  0
 31 32  1  0
 44 43  1  0
 44 47  1  0
 44 45  1  0
 47 48  1  0
 45 46  1  0
 45 49  1  0
 48 49  1  0
  1 50  1  1
  2 51  1  0
  5 52  1  6
  6 53  1  0
  9 54  1  6
 10 55  1  0
 10 56  1  0
 10 57  1  0
 11 58  1  0
 18 59  1  0
 18 60  1  0
 18 61  1  0
 19 62  1  0
 20 63  1  0
 21 64  1  0
 21 65  1  0
 21 66  1  0
 22 67  1  0
 22 68  1  0
 22 69  1  0
 23 70  1  0
 23 71  1  0
 24 72  1  0
 25 73  1  0
 25 74  1  0
 25 75  1  0
 26 76  1  0
 26 77  1  0
 26 78  1  0
 29 79  1  0
 30 80  1  6
 31 81  1  0
 31 82  1  0
 32 83  1  0
 32 84  1  0
 36 85  1  0
 36 86  1  0
 38 87  1  0
 39 88  1  0
 40 89  1  0
 41 90  1  0
 42 91  1  0
 43 92  1  0
 43 93  1  0
 44 94  1  1
 45 95  1  1
 46 96  1  0
 47 97  1  0
 47 98  1  0
 48 99  1  0
 48100  1  0
 49101  1  0
M  END
>  <_TriposChargeType>  (1) 
GASTEIGER

>  <energy_abs>  (1) 
75.28202070496052

>  <SMILE>  (1) 
[H]O[C@@]1([H])N([H])C([H])([H])C([H])([H])[C@@]1([H])C([H])([H])[C@]([H])(N([H])C(=O)[C@@]([H])(N([H])C(=O)[C@@]([H])(N([H])C(=O)[C@@]([H])(N([H])C(=O)c1noc(C([H])([H])[H])c1[H])C([H])([H])[H])C([H])(C([H])([H])[H])C([H])([H])[H])C([H])([H])C([H])(C([H])([H])[H])C([H])([H])[H])C([H])([H])C([H])([H])C(=O)OC([H])([H])c1c([H])c([H])c([H])c([H])c1[H]

>  <cluster_no>  (1) 
426

>  <pdb_id>  (1) 
6lu7

>  <initial_id>  (1) 
575

$$$$
