crystal_redock_e32_er3_1.pdbqt
     RDKit          3D

102104  0  0  0  0  0  0  0  0999 V2000
    0.7558    0.6069    1.9790 C   0  0  2  0  0  0  0  0  0  0  0  0
    0.7434    1.7012    1.9277 H   0  0  0  0  0  0  0  0  0  0  0  0
    0.2920    0.0658    0.7103 N   0  0  0  0  0  0  0  0  0  0  0  0
    0.3599    0.7817   -0.4780 C   0  0  0  0  0  0  0  0  0  0  0  0
    0.6987    1.9600   -0.5685 O   0  0  0  0  0  0  0  0  0  0  0  0
    0.1163   -0.9337    0.6673 H   0  0  0  0  0  0  0  0  0  0  0  0
   -0.0067   -0.0761   -1.6895 C   0  0  1  0  0  0  0  0  0  0  0  0
   -0.9356   -0.6067   -1.4434 H   0  0  0  0  0  0  0  0  0  0  0  0
   -0.2845    0.8298   -2.7970 N   0  0  0  0  0  0  0  0  0  0  0  0
   -1.5658    1.2695   -3.1070 C   0  0  0  0  0  0  0  0  0  0  0  0
   -2.5933    0.8840   -2.5533 O   0  0  0  0  0  0  0  0  0  0  0  0
    0.5035    1.3163   -3.2134 H   0  0  0  0  0  0  0  0  0  0  0  0
   -1.5601    2.3168   -4.2181 C   0  0  1  0  0  0  0  0  0  0  0  0
   -0.9413    1.9501   -5.0451 H   0  0  0  0  0  0  0  0  0  0  0  0
   -2.9303    2.4723   -4.6898 N   0  0  0  0  0  0  0  0  0  0  0  0
   -3.4425    1.7445   -5.7568 C   0  0  0  0  0  0  0  0  0  0  0  0
   -2.7759    0.9760   -6.4469 O   0  0  0  0  0  0  0  0  0  0  0  0
   -3.5616    2.9933   -4.0897 H   0  0  0  0  0  0  0  0  0  0  0  0
   -4.8636    1.9523   -6.0085 C   0  0  0  0  0  0  0  0  0  0  0  0
   -5.7956    2.8021   -5.3584 C   0  0  0  0  0  0  0  0  0  0  0  0
   -6.9802    2.5857   -6.0154 C   0  0  0  0  0  0  0  0  0  0  0  0
   -5.6372    3.4785   -4.5313 H   0  0  0  0  0  0  0  0  0  0  0  0
   -6.7842    1.6692   -6.9981 O   0  0  0  0  0  0  0  0  0  0  0  0
   -5.4606    1.2697   -6.9992 N   0  0  0  0  0  0  0  0  0  0  0  0
   -8.3447    3.1211   -5.8742 C   0  0  0  0  0  0  0  0  0  0  0  0
   -9.0528    2.3149   -5.6594 H   0  0  0  0  0  0  0  0  0  0  0  0
   -8.3994    3.8484   -5.0584 H   0  0  0  0  0  0  0  0  0  0  0  0
   -8.6584    3.6199   -6.7963 H   0  0  0  0  0  0  0  0  0  0  0  0
   -1.0202    3.6470   -3.7089 C   0  0  0  0  0  0  0  0  0  0  0  0
    0.0243    3.5616   -3.3927 H   0  0  0  0  0  0  0  0  0  0  0  0
   -1.5971    4.0053   -2.8485 H   0  0  0  0  0  0  0  0  0  0  0  0
   -1.0762    4.4130   -4.4897 H   0  0  0  0  0  0  0  0  0  0  0  0
    1.0955   -1.1079   -2.0224 C   0  0  0  0  0  0  0  0  0  0  0  0
    1.2805   -1.7161   -1.1285 H   0  0  0  0  0  0  0  0  0  0  0  0
    0.6328   -2.0633   -3.1263 C   0  0  0  0  0  0  0  0  0  0  0  0
    0.4745   -1.5388   -4.0744 H   0  0  0  0  0  0  0  0  0  0  0  0
   -0.3055   -2.5542   -2.8473 H   0  0  0  0  0  0  0  0  0  0  0  0
    1.3793   -2.8464   -3.2971 H   0  0  0  0  0  0  0  0  0  0  0  0
    2.4352   -0.4720   -2.4089 C   0  0  0  0  0  0  0  0  0  0  0  0
    2.3628    0.0991   -3.3398 H   0  0  0  0  0  0  0  0  0  0  0  0
    2.8010    0.1964   -1.6235 H   0  0  0  0  0  0  0  0  0  0  0  0
    3.1954   -1.2470   -2.5575 H   0  0  0  0  0  0  0  0  0  0  0  0
    2.2056    0.1525    2.1343 C   0  0  0  0  0  0  0  0  0  0  0  0
    2.6915   -0.7731    1.4872 O   0  0  0  0  0  0  0  0  0  0  0  0
    2.8866    0.8852    3.0965 N   0  0  0  0  0  0  0  0  0  0  0  0
    2.4119    1.6504    3.5669 H   0  0  0  0  0  0  0  0  0  0  0  0
    4.2724    0.6188    3.4651 C   0  0  2  0  0  0  0  0  0  0  0  0
    4.6230   -0.2619    2.9144 H   0  0  0  0  0  0  0  0  0  0  0  0
    4.3732    0.3206    4.9764 C   0  0  0  0  0  0  0  0  0  0  0  0
    5.4100    0.0513    5.2152 H   0  0  0  0  0  0  0  0  0  0  0  0
    4.1466    1.2322    5.5445 H   0  0  0  0  0  0  0  0  0  0  0  0
    3.4437   -0.7863    5.4765 C   0  0  0  0  0  0  0  0  0  0  0  0
    3.6103   -0.9655    6.5448 H   0  0  0  0  0  0  0  0  0  0  0  0
    2.3982   -0.4729    5.3772 H   0  0  0  0  0  0  0  0  0  0  0  0
    3.6582   -2.0968    4.7587 C   0  0  0  0  0  0  0  0  0  0  0  0
    4.7376   -2.6669    4.6753 O   0  0  0  0  0  0  0  0  0  0  0  0
    2.4770   -2.5264    4.2318 O   0  0  0  0  0  0  0  0  0  0  0  0
    2.5145   -3.7564    3.4921 C   0  0  0  0  0  0  0  0  0  0  0  0
    2.6945   -4.5913    4.1793 H   0  0  0  0  0  0  0  0  0  0  0  0
    3.3263   -3.7250    2.7559 H   0  0  0  0  0  0  0  0  0  0  0  0
    1.1848   -3.9306    2.8121 C   0  0  0  0  0  0  0  0  0  0  0  0
    1.0711   -3.8107    1.4212 C   0  0  0  0  0  0  0  0  0  0  0  0
   -0.1719   -3.9397    0.7992 C   0  0  0  0  0  0  0  0  0  0  0  0
    1.9482   -3.6086    0.8117 H   0  0  0  0  0  0  0  0  0  0  0  0
   -1.3119   -4.1880    1.5607 C   0  0  0  0  0  0  0  0  0  0  0  0
   -0.2509   -3.8421   -0.2797 H   0  0  0  0  0  0  0  0  0  0  0  0
   -1.2099   -4.3118    2.9448 C   0  0  0  0  0  0  0  0  0  0  0  0
   -2.2789   -4.2850    1.0760 H   0  0  0  0  0  0  0  0  0  0  0  0
    0.0321   -4.1843    3.5684 C   0  0  0  0  0  0  0  0  0  0  0  0
   -2.0981   -4.5041    3.5396 H   0  0  0  0  0  0  0  0  0  0  0  0
    0.0954   -4.2758    4.6499 H   0  0  0  0  0  0  0  0  0  0  0  0
    5.1835    1.8098    3.1037 C   0  0  0  0  0  0  0  0  0  0  0  0
    4.7912    2.7324    3.5502 H   0  0  0  0  0  0  0  0  0  0  0  0
    6.1640    1.6401    3.5690 H   0  0  0  0  0  0  0  0  0  0  0  0
    5.4182    2.0005    1.5969 C   0  0  2  0  0  0  0  0  0  0  0  0
    6.5082    3.0404    1.3315 C   0  0  0  0  0  0  0  0  0  0  0  0
    6.4006    3.2850   -0.1597 C   0  0  0  0  0  0  0  0  0  0  0  0
    6.3115    3.9674    1.8842 H   0  0  0  0  0  0  0  0  0  0  0  0
    7.5044    2.6849    1.6127 H   0  0  0  0  0  0  0  0  0  0  0  0
    4.9412    3.1183   -0.4573 N   0  0  0  0  0  0  0  0  0  0  0  0
    6.9320    2.5258   -0.7416 H   0  0  0  0  0  0  0  0  0  0  0  0
    6.7078    4.2885   -0.4646 H   0  0  0  0  0  0  0  0  0  0  0  0
    4.2556    2.5482    0.7597 C   0  0  2  0  0  0  0  0  0  0  0  0
    4.8112    2.5006   -1.2703 H   0  0  0  0  0  0  0  0  0  0  0  0
    4.5123    4.0207   -0.7023 H   0  0  0  0  0  0  0  0  0  0  0  0
    3.5952    1.7539    0.4032 H   0  0  0  0  0  0  0  0  0  0  0  0
    5.7483    1.0454    1.1638 H   0  0  0  0  0  0  0  0  0  0  0  0
    3.4899    3.4948    1.4906 O   0  0  0  0  0  0  0  0  0  0  0  0
    2.7969    3.8273    0.8951 H   0  0  0  0  0  0  0  0  0  0  0  0
   -0.0872    0.0962    3.1548 C   0  0  0  0  0  0  0  0  0  0  0  0
    0.0357   -0.9916    3.2345 H   0  0  0  0  0  0  0  0  0  0  0  0
    0.3073    0.5103    4.0919 H   0  0  0  0  0  0  0  0  0  0  0  0
   -1.5925    0.4131    3.0560 C   0  0  0  0  0  0  0  0  0  0  0  0
   -1.9962   -0.0391    2.1418 H   0  0  0  0  0  0  0  0  0  0  0  0
   -2.3302   -0.2132    4.2424 C   0  0  0  0  0  0  0  0  0  0  0  0
   -3.4080   -0.0334    4.1693 H   0  0  0  0  0  0  0  0  0  0  0  0
   -2.1750   -1.2969    4.2691 H   0  0  0  0  0  0  0  0  0  0  0  0
   -1.9806    0.2034    5.1932 H   0  0  0  0  0  0  0  0  0  0  0  0
   -1.8679    1.9162    3.0088 C   0  0  0  0  0  0  0  0  0  0  0  0
   -1.4288    2.4275    3.8721 H   0  0  0  0  0  0  0  0  0  0  0  0
   -1.4592    2.3679    2.0999 H   0  0  0  0  0  0  0  0  0  0  0  0
   -2.9454    2.1136    3.0115 H   0  0  0  0  0  0  0  0  0  0  0  0
 66 63  1  0
 63 65  1  0
 63 62  2  0
 68 65  1  0
 64 62  1  0
 65 67  2  0
 62 61  1  0
 67 70  1  0
 67 69  1  0
 61 69  2  0
 61 58  1  0
 60 58  1  0
 69 71  1  0
 57 58  1  0
 57 55  1  0
 58 59  1  0
 54 52  1  0
 50 49  1  0
 84 80  1  0
 55 52  1  0
 55 56  2  0
 51 49  1  0
 52 49  1  0
 52 53  1  0
 89 88  1  0
 49 47  1  0
 88 83  1  0
 81 77  1  0
 80 85  1  0
 80 77  1  0
 80 83  1  0
 74 72  1  0
 77 82  1  0
 77 76  1  0
 83 86  1  6
 83 75  1  0
 47 48  1  6
 47 72  1  0
 47 45  1  0
 78 76  1  0
 72 75  1  0
 72 73  1  0
 24 23  1  0
 24 19  2  0
 17 16  2  0
 76 75  1  0
 76 79  1  0
 11 10  2  0
 46 45  1  0
 75 87  1  6
 23 21  1  0
 45 43  1  0
 38 35  1  0
  7  8  1  1
 16 19  1  0
 16 15  1  0
 19 20  1  0
 13 14  1  6
 10 13  1  0
 10  9  1  0
 43 44  2  0
 43  1  1  0
 35 36  1  0
 35 37  1  0
 35 33  1  0
 21 20  2  0
 21 25  1  0
  7  4  1  0
  7  9  1  0
  7 33  1  0
 13 15  1  0
 13 29  1  0
 27 25  1  0
 15 18  1  0
  5  4  2  0
  4  3  1  0
 20 22  1  0
  9 12  1  0
  3  6  1  0
  3  1  1  0
  1  2  1  6
 33 34  1  0
 33 39  1  0
 25 28  1  0
 25 26  1  0
  1 90  1  0
 31 29  1  0
 29 30  1  0
 29 32  1  0
 39 40  1  0
 39 42  1  0
 39 41  1  0
 92 90  1  0
 94 93  1  0
 90 91  1  0
 90 93  1  0
 96 95  1  0
 93 95  1  0
 93 99  1  0
 98 95  1  0
 95 97  1  0
102 99  1  0
100 99  1  0
 99101  1  0
M  CHG  1  80   1
M  END
>  <_TriposChargeType>  (1) 
GASTEIGER

>  <energy_abs>  (1) 
78.50087994934354

>  <SMILE>  (1) 
[H]O[C@]1([H])[C@]([H])(C([H])([H])[C@]([H])(N([H])C(=O)[C@@]([H])(N([H])C(=O)[C@@]([H])(N([H])C(=O)[C@@]([H])(N([H])C(=O)c2noc(C([H])([H])[H])c2[H])C([H])([H])[H])C([H])(C([H])([H])[H])C([H])([H])[H])C([H])([H])C([H])(C([H])([H])[H])C([H])([H])[H])C([H])([H])C([H])([H])C(=O)OC([H])([H])c2c([H])c([H])c([H])c([H])c2[H])C([H])([H])C([H])([H])[N+]1([H])[H]

>  <cluster_no>  (1) 
150

>  <pdb_id>  (1) 
crystal_redock_e32_er3_1

>  <initial_id>  (1) 
852

$$$$
