crystal_redock_e24_er3_1.pdbqt
     RDKit          3D

102104  0  0  0  0  0  0  0  0999 V2000
  -11.5717   14.6233   69.5086 C   0  0  2  0  0  0  0  0  0  0  0  0
  -12.5067   14.5916   70.0772 H   0  0  0  0  0  0  0  0  0  0  0  0
  -11.1340   13.2674   69.2149 N   0  0  0  0  0  0  0  0  0  0  0  0
  -11.9414   12.1546   69.3937 C   0  0  0  0  0  0  0  0  0  0  0  0
  -13.0825   12.1970   69.8541 O   0  0  0  0  0  0  0  0  0  0  0  0
  -10.2650   13.1551   68.7007 H   0  0  0  0  0  0  0  0  0  0  0  0
  -11.3501   10.8541   68.8354 C   0  0  1  0  0  0  0  0  0  0  0  0
  -11.7406   10.7813   67.8116 H   0  0  0  0  0  0  0  0  0  0  0  0
   -9.8977   10.9386   68.7553 N   0  0  0  0  0  0  0  0  0  0  0  0
   -9.1760   10.5576   67.6362 C   0  0  0  0  0  0  0  0  0  0  0  0
   -9.6662   10.0432   66.6311 O   0  0  0  0  0  0  0  0  0  0  0  0
   -9.3974   11.2807   69.5704 H   0  0  0  0  0  0  0  0  0  0  0  0
   -7.6657   10.6734   67.7943 C   0  0  1  0  0  0  0  0  0  0  0  0
   -7.2215   10.6769   66.7940 H   0  0  0  0  0  0  0  0  0  0  0  0
   -7.3370   11.9367   68.4378 N   0  0  0  0  0  0  0  0  0  0  0  0
   -7.1731   13.1191   67.7295 C   0  0  0  0  0  0  0  0  0  0  0  0
   -7.2634   13.2163   66.5087 O   0  0  0  0  0  0  0  0  0  0  0  0
   -7.3379   11.9696   69.4538 H   0  0  0  0  0  0  0  0  0  0  0  0
   -6.8800   14.2760   68.5621 C   0  0  0  0  0  0  0  0  0  0  0  0
   -6.7057   15.6159   68.1346 C   0  0  0  0  0  0  0  0  0  0  0  0
   -6.4477   16.3138   69.2867 C   0  0  0  0  0  0  0  0  0  0  0  0
   -6.7620   16.0131   67.1314 H   0  0  0  0  0  0  0  0  0  0  0  0
   -6.4653   15.4573   70.3415 O   0  0  0  0  0  0  0  0  0  0  0  0
   -6.7312   14.1761   69.8917 N   0  0  0  0  0  0  0  0  0  0  0  0
   -6.1730   17.7281   69.5906 C   0  0  0  0  0  0  0  0  0  0  0  0
   -6.1537   18.3302   68.6770 H   0  0  0  0  0  0  0  0  0  0  0  0
   -6.9453   18.1351   70.2505 H   0  0  0  0  0  0  0  0  0  0  0  0
   -5.2037   17.8330   70.0874 H   0  0  0  0  0  0  0  0  0  0  0  0
   -7.1289    9.4992   68.5999 C   0  0  0  0  0  0  0  0  0  0  0  0
   -7.3832    8.5486   68.1191 H   0  0  0  0  0  0  0  0  0  0  0  0
   -6.0391    9.5576   68.6907 H   0  0  0  0  0  0  0  0  0  0  0  0
   -7.5452    9.4799   69.6135 H   0  0  0  0  0  0  0  0  0  0  0  0
  -11.8272    9.6135   69.6283 C   0  0  0  0  0  0  0  0  0  0  0  0
  -12.9218    9.6550   69.7056 H   0  0  0  0  0  0  0  0  0  0  0  0
  -11.4838    8.3096   68.9019 C   0  0  0  0  0  0  0  0  0  0  0  0
  -11.8772    8.3170   67.8801 H   0  0  0  0  0  0  0  0  0  0  0  0
  -10.4027    8.1443   68.8529 H   0  0  0  0  0  0  0  0  0  0  0  0
  -11.9263    7.4527   69.4215 H   0  0  0  0  0  0  0  0  0  0  0  0
  -11.2707    9.5739   71.0559 C   0  0  0  0  0  0  0  0  0  0  0  0
  -10.1804    9.4731   71.0633 H   0  0  0  0  0  0  0  0  0  0  0  0
  -11.5330   10.4802   71.6103 H   0  0  0  0  0  0  0  0  0  0  0  0
  -11.6856    8.7215   71.6048 H   0  0  0  0  0  0  0  0  0  0  0  0
  -11.9100   15.2191   68.1438 C   0  0  0  0  0  0  0  0  0  0  0  0
  -13.0789   15.4256   67.8178 O   0  0  0  0  0  0  0  0  0  0  0  0
  -10.8090   15.4577   67.3342 N   0  0  0  0  0  0  0  0  0  0  0  0
   -9.8877   15.1876   67.6636 H   0  0  0  0  0  0  0  0  0  0  0  0
  -10.9169   15.8714   65.9374 C   0  0  2  0  0  0  0  0  0  0  0  0
  -11.9666   16.0944   65.7116 H   0  0  0  0  0  0  0  0  0  0  0  0
  -10.4580   14.7247   65.0157 C   0  0  0  0  0  0  0  0  0  0  0  0
  -10.5052   15.0602   63.9714 H   0  0  0  0  0  0  0  0  0  0  0  0
   -9.4050   14.4881   65.2152 H   0  0  0  0  0  0  0  0  0  0  0  0
  -11.2973   13.4566   65.1658 C   0  0  0  0  0  0  0  0  0  0  0  0
  -11.1359   12.9705   66.1335 H   0  0  0  0  0  0  0  0  0  0  0  0
  -12.3650   13.6956   65.0980 H   0  0  0  0  0  0  0  0  0  0  0  0
  -10.9779   12.4653   64.0754 C   0  0  0  0  0  0  0  0  0  0  0  0
  -11.7690   12.1394   63.1998 O   0  0  0  0  0  0  0  0  0  0  0  0
   -9.7048   12.0006   64.2224 O   0  0  0  0  0  0  0  0  0  0  0  0
   -9.2656   11.0597   63.2307 C   0  0  0  0  0  0  0  0  0  0  0  0
   -9.9333   10.1901   63.2368 H   0  0  0  0  0  0  0  0  0  0  0  0
   -9.2992   11.5228   62.2372 H   0  0  0  0  0  0  0  0  0  0  0  0
   -7.8540   10.6513   63.5474 C   0  0  0  0  0  0  0  0  0  0  0  0
   -6.8139   11.5883   63.4752 C   0  0  0  0  0  0  0  0  0  0  0  0
   -5.5041   11.2168   63.7818 C   0  0  0  0  0  0  0  0  0  0  0  0
   -7.0207   12.6152   63.1841 H   0  0  0  0  0  0  0  0  0  0  0  0
   -5.2211    9.9059   64.1603 C   0  0  0  0  0  0  0  0  0  0  0  0
   -4.7054   11.9506   63.7266 H   0  0  0  0  0  0  0  0  0  0  0  0
   -6.2471    8.9656   64.2316 C   0  0  0  0  0  0  0  0  0  0  0  0
   -4.2019    9.6174   64.3999 H   0  0  0  0  0  0  0  0  0  0  0  0
   -7.5581    9.3356   63.9266 C   0  0  0  0  0  0  0  0  0  0  0  0
   -6.0274    7.9440   64.5279 H   0  0  0  0  0  0  0  0  0  0  0  0
   -8.3466    8.5904   63.9929 H   0  0  0  0  0  0  0  0  0  0  0  0
  -10.0708   17.1301   65.6607 C   0  0  0  0  0  0  0  0  0  0  0  0
   -9.0415   16.9794   66.0089 H   0  0  0  0  0  0  0  0  0  0  0  0
  -10.0069   17.2683   64.5729 H   0  0  0  0  0  0  0  0  0  0  0  0
  -10.6593   18.4200   66.2491 C   0  0  2  0  0  0  0  0  0  0  0  0
   -9.9249   19.6611   65.7406 C   0  0  0  0  0  0  0  0  0  0  0  0
  -10.4484   20.7670   66.6354 C   0  0  0  0  0  0  0  0  0  0  0  0
   -8.8395   19.5563   65.8583 H   0  0  0  0  0  0  0  0  0  0  0  0
  -10.1290   19.8647   64.6848 H   0  0  0  0  0  0  0  0  0  0  0  0
  -10.7120   20.0925   67.9486 N   0  0  0  0  0  0  0  0  0  0  0  0
   -9.7334   21.5777   66.7961 H   0  0  0  0  0  0  0  0  0  0  0  0
  -11.4064   21.1624   66.2842 H   0  0  0  0  0  0  0  0  0  0  0  0
  -10.5746   18.6013   67.7686 C   0  0  2  0  0  0  0  0  0  0  0  0
  -10.0488   20.4142   68.6662 H   0  0  0  0  0  0  0  0  0  0  0  0
  -11.6531   20.3321   68.2894 H   0  0  0  0  0  0  0  0  0  0  0  0
  -11.4251   18.1440   68.2818 H   0  0  0  0  0  0  0  0  0  0  0  0
  -11.7115   18.5037   65.9413 H   0  0  0  0  0  0  0  0  0  0  0  0
   -9.3788   18.0609   68.3108 O   0  0  0  0  0  0  0  0  0  0  0  0
   -8.6276   18.5355   67.9171 H   0  0  0  0  0  0  0  0  0  0  0  0
  -10.5195   15.4366   70.2731 C   0  0  0  0  0  0  0  0  0  0  0  0
   -9.5348   15.2979   69.8129 H   0  0  0  0  0  0  0  0  0  0  0  0
  -10.7552   16.5029   70.1632 H   0  0  0  0  0  0  0  0  0  0  0  0
  -10.3818   15.1473   71.7830 C   0  0  0  0  0  0  0  0  0  0  0  0
   -9.5803   15.8037   72.1488 H   0  0  0  0  0  0  0  0  0  0  0  0
  -11.6469   15.5096   72.5618 C   0  0  0  0  0  0  0  0  0  0  0  0
  -12.4786   14.8388   72.3252 H   0  0  0  0  0  0  0  0  0  0  0  0
  -11.4652   15.4411   73.6399 H   0  0  0  0  0  0  0  0  0  0  0  0
  -11.9606   16.5354   72.3421 H   0  0  0  0  0  0  0  0  0  0  0  0
   -9.9592   13.7127   72.0930 C   0  0  0  0  0  0  0  0  0  0  0  0
   -9.6707   13.6210   73.1460 H   0  0  0  0  0  0  0  0  0  0  0  0
  -10.7718   13.0020   71.9185 H   0  0  0  0  0  0  0  0  0  0  0  0
   -9.0990   13.4133   71.4867 H   0  0  0  0  0  0  0  0  0  0  0  0
 66 63  1  0
 68 65  1  0
 63 65  1  0
 63 62  2  0
 65 67  2  0
 64 62  1  0
 62 61  1  0
 67 70  1  0
 67 69  1  0
 56 55  2  0
 61 69  2  0
 61 58  1  0
 69 71  1  0
 54 52  1  0
 55 57  1  0
 55 52  1  0
 60 58  1  0
 50 49  1  0
 57 58  1  0
 58 59  1  0
 52 49  1  0
 52 53  1  0
 49 51  1  0
 49 47  1  0
 79 76  1  0
 74 72  1  0
 78 76  1  0
 26 25  1  0
 76 75  1  0
 76 77  1  0
 47 48  1  6
 47 72  1  0
 47 45  1  0
 22 20  1  0
 72 75  1  0
 72 73  1  0
 81 77  1  0
 82 77  1  0
 11 10  2  0
 75 87  1  6
 75 83  1  0
 77 80  1  0
 25 28  1  0
 25 21  1  0
 25 27  1  0
 46 45  1  0
 20 21  2  0
 20 19  1  0
 17 16  2  0
 45 43  1  0
  7  8  1  6
 21 23  1  0
 16 19  1  0
 16 15  1  0
 19 24  2  0
 13 14  1  6
 10 13  1  0
 10  9  1  0
 83 80  1  0
 83 86  1  1
 83 88  1  0
 36 35  1  0
 80 84  1  0
 80 85  1  0
  5  4  2  0
 43 44  2  0
 43  1  1  0
 23 24  1  0
  7  4  1  0
  7  9  1  0
  7 33  1  0
 13 15  1  0
 13 29  1  0
 37 35  1  0
 15 18  1  0
  4  3  1  0
 88 89  1  0
 34 33  1  0
  9 12  1  0
 35 33  1  0
 35 38  1  0
  3  1  1  0
  3  6  1  0
 33 39  1  0
  1  2  1  1
  1 90  1  0
 29 31  1  0
 29 30  1  0
 29 32  1  0
 96 95  1  0
 92 90  1  0
 39 41  1  0
 39 40  1  0
 39 42  1  0
101 99  1  0
 90 91  1  0
 90 93  1  0
 97 95  1  0
 95 93  1  0
 95 98  1  0
 93 99  1  0
 93 94  1  0
 99102  1  0
 99100  1  0
M  CHG  1  80   1
M  END
>  <_TriposChargeType>  (1) 
GASTEIGER

>  <energy_abs>  (1) 
83.66948043504513

>  <SMILE>  (1) 
[H]O[C@]1([H])[C@]([H])(C([H])([H])[C@]([H])(N([H])C(=O)[C@@]([H])(N([H])C(=O)[C@@]([H])(N([H])C(=O)[C@@]([H])(N([H])C(=O)c2noc(C([H])([H])[H])c2[H])C([H])([H])[H])C([H])(C([H])([H])[H])C([H])([H])[H])C([H])([H])C([H])(C([H])([H])[H])C([H])([H])[H])C([H])([H])C([H])([H])C(=O)OC([H])([H])c2c([H])c([H])c([H])c([H])c2[H])C([H])([H])C([H])([H])[N+]1([H])[H]

$$$$
