crystal_redock_e24_er3_1.pdbqt
     RDKit          3D

102104  0  0  0  0  0  0  0  0999 V2000
    0.2825    1.5659   -0.4775 C   0  0  2  0  0  0  0  0  0  0  0  0
    0.8521    1.6160   -1.4133 H   0  0  0  0  0  0  0  0  0  0  0  0
    0.1148    0.1685   -0.1022 N   0  0  0  0  0  0  0  0  0  0  0  0
    0.9865   -0.8296   -0.5114 C   0  0  0  0  0  0  0  0  0  0  0  0
    1.9640   -0.6482   -1.2356 O   0  0  0  0  0  0  0  0  0  0  0  0
   -0.5925   -0.0508    0.5929 H   0  0  0  0  0  0  0  0  0  0  0  0
    0.6156   -2.2025    0.0522 C   0  0  1  0  0  0  0  0  0  0  0  0
   -0.4776   -2.2958    0.0502 H   0  0  0  0  0  0  0  0  0  0  0  0
    1.1328   -3.1830   -0.9002 N   0  0  0  0  0  0  0  0  0  0  0  0
    0.3868   -3.6528   -1.9750 C   0  0  0  0  0  0  0  0  0  0  0  0
   -0.7902   -3.3693   -2.1884 O   0  0  0  0  0  0  0  0  0  0  0  0
    2.1319   -3.3648   -0.8903 H   0  0  0  0  0  0  0  0  0  0  0  0
    1.2058   -4.5592   -2.8910 C   0  0  1  0  0  0  0  0  0  0  0  0
    1.7172   -5.3100   -2.2778 H   0  0  0  0  0  0  0  0  0  0  0  0
    0.2802   -5.2383   -3.7875 N   0  0  0  0  0  0  0  0  0  0  0  0
   -0.2634   -6.4851   -3.5093 C   0  0  0  0  0  0  0  0  0  0  0  0
    0.0439   -7.1780   -2.5429 O   0  0  0  0  0  0  0  0  0  0  0  0
   -0.1171   -4.6949   -4.5493 H   0  0  0  0  0  0  0  0  0  0  0  0
   -1.2625   -6.9271   -4.4723 C   0  0  0  0  0  0  0  0  0  0  0  0
   -1.9893   -8.1440   -4.4530 C   0  0  0  0  0  0  0  0  0  0  0  0
   -2.7936   -8.0827   -5.5621 C   0  0  0  0  0  0  0  0  0  0  0  0
   -1.9331   -8.9478   -3.7333 H   0  0  0  0  0  0  0  0  0  0  0  0
   -2.5712   -6.9094   -6.2109 O   0  0  0  0  0  0  0  0  0  0  0  0
   -1.6110   -6.1800   -5.5312 N   0  0  0  0  0  0  0  0  0  0  0  0
   -3.7942   -8.9856   -6.1553 C   0  0  0  0  0  0  0  0  0  0  0  0
   -3.9003   -9.8992   -5.5622 H   0  0  0  0  0  0  0  0  0  0  0  0
   -4.7717   -8.4961   -6.2040 H   0  0  0  0  0  0  0  0  0  0  0  0
   -3.4998   -9.2709   -7.1699 H   0  0  0  0  0  0  0  0  0  0  0  0
    2.2210   -3.7522   -3.6898 C   0  0  0  0  0  0  0  0  0  0  0  0
    2.9558   -3.2716   -3.0361 H   0  0  0  0  0  0  0  0  0  0  0  0
    1.7305   -2.9630   -4.2710 H   0  0  0  0  0  0  0  0  0  0  0  0
    2.7621   -4.3955   -4.3920 H   0  0  0  0  0  0  0  0  0  0  0  0
    1.1582   -2.4783    1.4723 C   0  0  0  0  0  0  0  0  0  0  0  0
    1.0754   -3.5601    1.6485 H   0  0  0  0  0  0  0  0  0  0  0  0
    0.3172   -1.7992    2.5554 C   0  0  0  0  0  0  0  0  0  0  0  0
    0.4279   -0.7120    2.5367 H   0  0  0  0  0  0  0  0  0  0  0  0
    0.6249   -2.1419    3.5495 H   0  0  0  0  0  0  0  0  0  0  0  0
   -0.7441   -2.0406    2.4370 H   0  0  0  0  0  0  0  0  0  0  0  0
    2.6339   -2.1073    1.6505 C   0  0  0  0  0  0  0  0  0  0  0  0
    3.2642   -2.6065    0.9083 H   0  0  0  0  0  0  0  0  0  0  0  0
    2.7934   -1.0274    1.5651 H   0  0  0  0  0  0  0  0  0  0  0  0
    2.9879   -2.4144    2.6408 H   0  0  0  0  0  0  0  0  0  0  0  0
    1.1179    2.2254    0.6194 C   0  0  0  0  0  0  0  0  0  0  0  0
    1.2842    1.7298    1.7317 O   0  0  0  0  0  0  0  0  0  0  0  0
    1.6242    3.4573    0.2230 N   0  0  0  0  0  0  0  0  0  0  0  0
    1.5589    3.7202   -0.7563 H   0  0  0  0  0  0  0  0  0  0  0  0
    2.4686    4.2774    1.0913 C   0  0  2  0  0  0  0  0  0  0  0  0
    2.1431    4.0935    2.1216 H   0  0  0  0  0  0  0  0  0  0  0  0
    2.2857    5.7723    0.7666 C   0  0  0  0  0  0  0  0  0  0  0  0
    2.6823    5.9815   -0.2349 H   0  0  0  0  0  0  0  0  0  0  0  0
    2.8703    6.3730    1.4728 H   0  0  0  0  0  0  0  0  0  0  0  0
    0.8345    6.2532    0.8137 C   0  0  0  0  0  0  0  0  0  0  0  0
    0.7849    7.3248    0.5872 H   0  0  0  0  0  0  0  0  0  0  0  0
    0.2266    5.7584    0.0477 H   0  0  0  0  0  0  0  0  0  0  0  0
    0.2158    6.0493    2.1740 C   0  0  0  0  0  0  0  0  0  0  0  0
    0.4996    6.7156    3.1606 O   0  0  0  0  0  0  0  0  0  0  0  0
   -0.6607    5.0064    2.1296 O   0  0  0  0  0  0  0  0  0  0  0  0
   -1.2963    4.6643    3.3691 C   0  0  0  0  0  0  0  0  0  0  0  0
   -0.5364    4.4678    4.1350 H   0  0  0  0  0  0  0  0  0  0  0  0
   -1.9232    5.4984    3.7064 H   0  0  0  0  0  0  0  0  0  0  0  0
   -2.1424    3.4443    3.1379 C   0  0  0  0  0  0  0  0  0  0  0  0
   -1.6855    2.1760    3.5187 C   0  0  0  0  0  0  0  0  0  0  0  0
   -2.4640    1.0428    3.2778 C   0  0  0  0  0  0  0  0  0  0  0  0
   -0.7190    2.0613    4.0028 H   0  0  0  0  0  0  0  0  0  0  0  0
   -3.7017    1.1658    2.6494 C   0  0  0  0  0  0  0  0  0  0  0  0
   -2.1034    0.0637    3.5785 H   0  0  0  0  0  0  0  0  0  0  0  0
   -4.1625    2.4222    2.2608 C   0  0  0  0  0  0  0  0  0  0  0  0
   -4.3053    0.2830    2.4603 H   0  0  0  0  0  0  0  0  0  0  0  0
   -3.3860    3.5567    2.5014 C   0  0  0  0  0  0  0  0  0  0  0  0
   -5.1249    2.5186    1.7666 H   0  0  0  0  0  0  0  0  0  0  0  0
   -3.7547    4.5297    2.1861 H   0  0  0  0  0  0  0  0  0  0  0  0
    3.9345    3.8182    0.9521 C   0  0  0  0  0  0  0  0  0  0  0  0
    4.2710    3.9940   -0.0788 H   0  0  0  0  0  0  0  0  0  0  0  0
    3.9850    2.7299    1.0911 H   0  0  0  0  0  0  0  0  0  0  0  0
    4.9126    4.4994    1.9151 C   0  0  2  0  0  0  0  0  0  0  0  0
    6.3258    3.9306    1.8008 C   0  0  0  0  0  0  0  0  0  0  0  0
    7.0295    4.5088    3.0138 C   0  0  0  0  0  0  0  0  0  0  0  0
    6.8200    4.2184    0.8678 H   0  0  0  0  0  0  0  0  0  0  0  0
    6.3180    2.8349    1.8546 H   0  0  0  0  0  0  0  0  0  0  0  0
    5.9503    4.6353    4.0501 N   0  0  0  0  0  0  0  0  0  0  0  0
    7.4100    5.5178    2.8281 H   0  0  0  0  0  0  0  0  0  0  0  0
    7.8199    3.8662    3.4098 H   0  0  0  0  0  0  0  0  0  0  0  0
    4.6211    4.3268    3.4094 C   0  0  2  0  0  0  0  0  0  0  0  0
    5.9486    5.5854    4.4459 H   0  0  0  0  0  0  0  0  0  0  0  0
    6.1160    3.9901    4.8339 H   0  0  0  0  0  0  0  0  0  0  0  0
    3.8996    5.0653    3.7742 H   0  0  0  0  0  0  0  0  0  0  0  0
    4.9668    5.5716    1.6831 H   0  0  0  0  0  0  0  0  0  0  0  0
    4.1285    3.0236    3.6901 O   0  0  0  0  0  0  0  0  0  0  0  0
    4.0136    2.9595    4.6534 H   0  0  0  0  0  0  0  0  0  0  0  0
   -1.0715    2.2777   -0.6240 C   0  0  0  0  0  0  0  0  0  0  0  0
   -1.7476    1.9554    0.1772 H   0  0  0  0  0  0  0  0  0  0  0  0
   -0.9344    3.3575   -0.4827 H   0  0  0  0  0  0  0  0  0  0  0  0
   -1.7599    2.0718   -1.9889 C   0  0  0  0  0  0  0  0  0  0  0  0
   -1.0839    2.4257   -2.7776 H   0  0  0  0  0  0  0  0  0  0  0  0
   -2.1063    0.6113   -2.2780 C   0  0  0  0  0  0  0  0  0  0  0  0
   -1.2044    0.0113   -2.4282 H   0  0  0  0  0  0  0  0  0  0  0  0
   -2.6852    0.1695   -1.4601 H   0  0  0  0  0  0  0  0  0  0  0  0
   -2.6996    0.5262   -3.1951 H   0  0  0  0  0  0  0  0  0  0  0  0
   -3.0331    2.9216   -2.0508 C   0  0  0  0  0  0  0  0  0  0  0  0
   -2.8038    3.9804   -1.8895 H   0  0  0  0  0  0  0  0  0  0  0  0
   -3.5144    2.8322   -3.0304 H   0  0  0  0  0  0  0  0  0  0  0  0
   -3.7554    2.6107   -1.2881 H   0  0  0  0  0  0  0  0  0  0  0  0
 66 63  1  0
 68 65  1  0
 63 65  1  0
 63 62  2  0
 65 67  2  0
 64 62  1  0
 62 61  1  0
 67 70  1  0
 67 69  1  0
 56 55  2  0
 61 69  2  0
 61 58  1  0
 69 71  1  0
 54 52  1  0
 55 57  1  0
 55 52  1  0
 60 58  1  0
 50 49  1  0
 57 58  1  0
 58 59  1  0
 52 49  1  0
 52 53  1  0
 49 51  1  0
 49 47  1  0
 79 76  1  0
 74 72  1  0
 78 76  1  0
 26 25  1  0
 76 75  1  0
 76 77  1  0
 47 48  1  1
 47 72  1  0
 47 45  1  0
 22 20  1  0
 72 75  1  0
 72 73  1  0
 81 77  1  0
 82 77  1  0
 11 10  2  0
 75 87  1  6
 75 83  1  0
 77 80  1  0
 25 28  1  0
 25 21  1  0
 25 27  1  0
 46 45  1  0
 20 21  2  0
 20 19  1  0
 17 16  2  0
 45 43  1  0
  7  8  1  1
 21 23  1  0
 16 19  1  0
 16 15  1  0
 19 24  2  0
 13 14  1  1
 10 13  1  0
 10  9  1  0
 83 80  1  0
 83 86  1  1
 83 88  1  0
 36 35  1  0
 80 84  1  0
 80 85  1  0
  5  4  2  0
 43 44  2  0
 43  1  1  0
 23 24  1  0
  7  4  1  0
  7  9  1  0
  7 33  1  0
 13 15  1  0
 13 29  1  0
 37 35  1  0
 15 18  1  0
  4  3  1  0
 88 89  1  0
 34 33  1  0
  9 12  1  0
 35 33  1  0
 35 38  1  0
  3  1  1  0
  3  6  1  0
 33 39  1  0
  1  2  1  6
  1 90  1  0
 29 31  1  0
 29 30  1  0
 29 32  1  0
 96 95  1  0
 92 90  1  0
 39 41  1  0
 39 40  1  0
 39 42  1  0
101 99  1  0
 90 91  1  0
 90 93  1  0
 97 95  1  0
 95 93  1  0
 95 98  1  0
 93 99  1  0
 93 94  1  0
 99102  1  0
 99100  1  0
M  CHG  1  80   1
M  END
>  <_TriposChargeType>  (1) 
GASTEIGER

>  <energy_abs>  (1) 
80.79360449311646

>  <SMILE>  (1) 
[H]O[C@]1([H])[C@]([H])(C([H])([H])[C@]([H])(N([H])C(=O)[C@@]([H])(N([H])C(=O)[C@@]([H])(N([H])C(=O)[C@@]([H])(N([H])C(=O)c2noc(C([H])([H])[H])c2[H])C([H])([H])[H])C([H])(C([H])([H])[H])C([H])([H])[H])C([H])([H])C([H])(C([H])([H])[H])C([H])([H])[H])C([H])([H])C([H])([H])C(=O)OC([H])([H])c2c([H])c([H])c([H])c([H])c2[H])C([H])([H])C([H])([H])[N+]1([H])[H]

>  <cluster_no>  (1) 
229

>  <pdb_id>  (1) 
6lu7

>  <initial_id>  (1) 
771

$$$$
