crystal_redock_e32_er3_1.pdbqt
     RDKit          3D

102104  0  0  0  0  0  0  0  0999 V2000
  -31.1302   14.2190   24.1079 C   0  0  2  0  0  0  0  0  0  0  0  0
  -30.2496   14.3907   23.4799 H   0  0  0  0  0  0  0  0  0  0  0  0
  -31.2370   12.7753   24.2835 N   0  0  0  0  0  0  0  0  0  0  0  0
  -30.9741   11.8767   23.2557 C   0  0  0  0  0  0  0  0  0  0  0  0
  -30.6567   12.1995   22.1130 O   0  0  0  0  0  0  0  0  0  0  0  0
  -31.5902   12.4171   25.1664 H   0  0  0  0  0  0  0  0  0  0  0  0
  -31.1130   10.4210   23.7022 C   0  0  1  0  0  0  0  0  0  0  0  0
  -30.5863   10.2984   24.6567 H   0  0  0  0  0  0  0  0  0  0  0  0
  -32.5473   10.2566   23.9078 N   0  0  0  0  0  0  0  0  0  0  0  0
  -33.1032    9.9061   25.1274 C   0  0  0  0  0  0  0  0  0  0  0  0
  -32.4539    9.5798   26.1209 O   0  0  0  0  0  0  0  0  0  0  0  0
  -33.1638   10.4746   23.1307 H   0  0  0  0  0  0  0  0  0  0  0  0
  -34.6227    9.7853   25.1130 C   0  0  1  0  0  0  0  0  0  0  0  0
  -34.9814    9.8946   26.1423 H   0  0  0  0  0  0  0  0  0  0  0  0
  -35.1872   10.8639   24.3125 N   0  0  0  0  0  0  0  0  0  0  0  0
  -35.4939   12.1109   24.8408 C   0  0  0  0  0  0  0  0  0  0  0  0
  -35.3841   12.4006   26.0304 O   0  0  0  0  0  0  0  0  0  0  0  0
  -35.2393   10.7143   23.3102 H   0  0  0  0  0  0  0  0  0  0  0  0
  -35.9695   13.0806   23.8618 C   0  0  0  0  0  0  0  0  0  0  0  0
  -36.0219   13.0027   22.4460 C   0  0  0  0  0  0  0  0  0  0  0  0
  -36.5500   14.2056   22.0513 C   0  0  0  0  0  0  0  0  0  0  0  0
  -35.7148   12.1954   21.7974 H   0  0  0  0  0  0  0  0  0  0  0  0
  -36.8052   14.9623   23.1495 O   0  0  0  0  0  0  0  0  0  0  0  0
  -36.4426   14.2634   24.2853 N   0  0  0  0  0  0  0  0  0  0  0  0
  -36.8756   14.8047   20.7463 C   0  0  0  0  0  0  0  0  0  0  0  0
  -37.9559   14.9505   20.6513 H   0  0  0  0  0  0  0  0  0  0  0  0
  -36.3850   15.7765   20.6353 H   0  0  0  0  0  0  0  0  0  0  0  0
  -36.5446   14.1616   19.9250 H   0  0  0  0  0  0  0  0  0  0  0  0
  -35.0337    8.4305   24.5544 C   0  0  0  0  0  0  0  0  0  0  0  0
  -34.6019    7.6170   25.1470 H   0  0  0  0  0  0  0  0  0  0  0  0
  -36.1235    8.3217   24.5640 H   0  0  0  0  0  0  0  0  0  0  0  0
  -34.6972    8.3013   23.5195 H   0  0  0  0  0  0  0  0  0  0  0  0
  -30.5668    9.4052   22.6751 C   0  0  0  0  0  0  0  0  0  0  0  0
  -30.9933    9.6172   21.6859 H   0  0  0  0  0  0  0  0  0  0  0  0
  -29.0394    9.5009   22.5682 C   0  0  0  0  0  0  0  0  0  0  0  0
  -28.5617    9.2861   23.5304 H   0  0  0  0  0  0  0  0  0  0  0  0
  -28.6572    8.7819   21.8353 H   0  0  0  0  0  0  0  0  0  0  0  0
  -28.7164   10.4952   22.2469 H   0  0  0  0  0  0  0  0  0  0  0  0
  -30.9432    7.9646   23.0446 C   0  0  0  0  0  0  0  0  0  0  0  0
  -30.5910    7.7082   24.0497 H   0  0  0  0  0  0  0  0  0  0  0  0
  -32.0270    7.8149   23.0138 H   0  0  0  0  0  0  0  0  0  0  0  0
  -30.4993    7.2537   22.3392 H   0  0  0  0  0  0  0  0  0  0  0  0
  -30.8408   14.7914   25.4906 C   0  0  0  0  0  0  0  0  0  0  0  0
  -29.7709   15.3519   25.7285 O   0  0  0  0  0  0  0  0  0  0  0  0
  -31.8675   14.6236   26.4099 N   0  0  0  0  0  0  0  0  0  0  0  0
  -32.6621   14.0493   26.1450 H   0  0  0  0  0  0  0  0  0  0  0  0
  -31.6872   14.8871   27.8366 C   0  0  2  0  0  0  0  0  0  0  0  0
  -30.9396   15.6847   27.9332 H   0  0  0  0  0  0  0  0  0  0  0  0
  -31.0976   13.6366   28.5261 C   0  0  0  0  0  0  0  0  0  0  0  0
  -30.1761   13.3386   28.0089 H   0  0  0  0  0  0  0  0  0  0  0  0
  -30.8011   13.9020   29.5494 H   0  0  0  0  0  0  0  0  0  0  0  0
  -32.0583   12.4408   28.5821 C   0  0  0  0  0  0  0  0  0  0  0  0
  -32.9313   12.7297   29.1706 H   0  0  0  0  0  0  0  0  0  0  0  0
  -32.3621   12.1641   27.5684 H   0  0  0  0  0  0  0  0  0  0  0  0
  -31.4278   11.2298   29.2342 C   0  0  0  0  0  0  0  0  0  0  0  0
  -30.2309   11.1673   29.5028 O   0  0  0  0  0  0  0  0  0  0  0  0
  -32.2551   10.1874   29.5107 O   0  0  0  0  0  0  0  0  0  0  0  0
  -33.6682   10.1530   29.1963 C   0  0  0  0  0  0  0  0  0  0  0  0
  -33.8737   10.6908   28.2666 H   0  0  0  0  0  0  0  0  0  0  0  0
  -33.9286    9.1045   29.0122 H   0  0  0  0  0  0  0  0  0  0  0  0
  -34.4992   10.6643   30.3420 C   0  0  0  0  0  0  0  0  0  0  0  0
  -35.5188   11.5983   30.1125 C   0  0  0  0  0  0  0  0  0  0  0  0
  -36.3015   12.0665   31.1689 C   0  0  0  0  0  0  0  0  0  0  0  0
  -35.7074   11.9718   29.1090 H   0  0  0  0  0  0  0  0  0  0  0  0
  -36.0794   11.5992   32.4626 C   0  0  0  0  0  0  0  0  0  0  0  0
  -37.0854   12.7946   30.9816 H   0  0  0  0  0  0  0  0  0  0  0  0
  -35.0769   10.6610   32.7004 C   0  0  0  0  0  0  0  0  0  0  0  0
  -36.6893   11.9631   33.2842 H   0  0  0  0  0  0  0  0  0  0  0  0
  -34.2925   10.1923   31.6452 C   0  0  0  0  0  0  0  0  0  0  0  0
  -34.9066   10.2922   33.7078 H   0  0  0  0  0  0  0  0  0  0  0  0
  -33.5189    9.4558   31.8474 H   0  0  0  0  0  0  0  0  0  0  0  0
  -32.9917   15.3558   28.5088 C   0  0  0  0  0  0  0  0  0  0  0  0
  -33.8130   14.6660   28.2794 H   0  0  0  0  0  0  0  0  0  0  0  0
  -32.8497   15.3178   29.5972 H   0  0  0  0  0  0  0  0  0  0  0  0
  -33.3942   16.7918   28.1466 C   0  0  2  0  0  0  0  0  0  0  0  0
  -34.5698   17.2818   28.9922 C   0  0  0  0  0  0  0  0  0  0  0  0
  -34.9906   18.5619   28.2964 C   0  0  0  0  0  0  0  0  0  0  0  0
  -35.3927   16.5562   28.9829 H   0  0  0  0  0  0  0  0  0  0  0  0
  -34.2909   17.4600   30.0353 H   0  0  0  0  0  0  0  0  0  0  0  0
  -34.6657   18.3269   26.8504 N   0  0  0  0  0  0  0  0  0  0  0  0
  -36.0585   18.7772   28.3838 H   0  0  0  0  0  0  0  0  0  0  0  0
  -34.3963   19.4220   28.6191 H   0  0  0  0  0  0  0  0  0  0  0  0
  -33.9164   17.0250   26.7269 C   0  0  2  0  0  0  0  0  0  0  0  0
  -35.5218   18.2912   26.2812 H   0  0  0  0  0  0  0  0  0  0  0  0
  -34.1002   19.1046   26.4834 H   0  0  0  0  0  0  0  0  0  0  0  0
  -33.1051   17.1841   26.0120 H   0  0  0  0  0  0  0  0  0  0  0  0
  -32.5414   17.4610   28.3295 H   0  0  0  0  0  0  0  0  0  0  0  0
  -34.7155   15.9350   26.2928 O   0  0  0  0  0  0  0  0  0  0  0  0
  -35.0924   16.1749   25.4297 H   0  0  0  0  0  0  0  0  0  0  0  0
  -32.3783   14.8056   23.4343 C   0  0  0  0  0  0  0  0  0  0  0  0
  -32.6038   14.2320   22.5253 H   0  0  0  0  0  0  0  0  0  0  0  0
  -33.2484   14.6727   24.0881 H   0  0  0  0  0  0  0  0  0  0  0  0
  -32.2527   16.2972   23.0624 C   0  0  0  0  0  0  0  0  0  0  0  0
  -31.9988   16.8729   23.9595 H   0  0  0  0  0  0  0  0  0  0  0  0
  -31.1662   16.5485   22.0149 C   0  0  0  0  0  0  0  0  0  0  0  0
  -31.3262   15.9355   21.1215 H   0  0  0  0  0  0  0  0  0  0  0  0
  -31.1604   17.5996   21.7060 H   0  0  0  0  0  0  0  0  0  0  0  0
  -30.1706   16.3253   22.4092 H   0  0  0  0  0  0  0  0  0  0  0  0
  -33.5943   16.8162   22.5387 C   0  0  0  0  0  0  0  0  0  0  0  0
  -33.5334   17.8838   22.3020 H   0  0  0  0  0  0  0  0  0  0  0  0
  -33.8982   16.2847   21.6307 H   0  0  0  0  0  0  0  0  0  0  0  0
  -34.3819   16.6887   23.2873 H   0  0  0  0  0  0  0  0  0  0  0  0
100 99  1  0
101 99  1  0
102 99  1  0
 99 93  1  0
 42 39  1  0
 97 95  1  0
 34 33  1  0
 93 94  1  0
 93 95  1  0
 93 90  1  0
 38 35  1  0
 95 98  1  0
 95 96  1  0
 91 90  1  0
 28 25  1  0
 39 33  1  0
 39 40  1  0
 39 41  1  0
 37 35  1  0
 27 25  1  0
 33 35  1  0
 33  7  1  0
  5  4  2  0
 35 36  1  0
 90 92  1  0
 90  1  1  0
 25 26  1  0
 25 21  1  0
 22 20  1  0
 12  9  1  0
  4  7  1  0
  4  3  1  0
  7  9  1  0
  7  8  1  1
  1  2  1  6
  1  3  1  0
  1 43  1  0
  9 10  1  0
 21 20  2  0
 21 23  1  0
 20 19  1  0
 18 15  1  0
  3  6  1  0
 89 88  1  0
 32 29  1  0
 31 29  1  0
 44 43  2  0
 43 45  1  0
 88 83  1  0
 15 13  1  0
 15 16  1  0
 29 13  1  0
 29 30  1  0
 23 24  1  0
 10 13  1  0
 10 11  2  0
 19 16  1  0
 19 24  2  0
 85 80  1  0
 83 86  1  6
 84 80  1  0
 13 14  1  1
 83 80  1  0
 83 75  1  0
 80 77  1  0
 16 17  2  0
 45 46  1  0
 45 47  1  0
 73 72  1  0
 75 87  1  1
 75 72  1  0
 75 76  1  0
 47 48  1  6
 77 82  1  0
 77 81  1  0
 77 76  1  0
 72 47  1  0
 72 74  1  0
 47 49  1  0
 76 78  1  0
 76 79  1  0
 54 52  1  0
 56 55  2  0
 50 49  1  0
 59 58  1  0
 49 52  1  0
 49 51  1  0
 55 52  1  0
 55 57  1  0
 52 53  1  0
 60 58  1  0
 58 57  1  0
 58 61  1  0
 71 69  1  0
 61 69  1  0
 61 62  2  0
 69 67  2  0
 64 62  1  0
 62 63  1  0
 67 70  1  0
 67 65  1  0
 63 65  2  0
 63 66  1  0
 65 68  1  0
M  CHG  1  80   1
M  END
>  <_TriposChargeType>  (1) 
GASTEIGER

>  <energy_abs>  (1) 
91.52211220991946

>  <SMILE>  (1) 
[H]O[C@]1([H])[C@]([H])(C([H])([H])[C@]([H])(N([H])C(=O)[C@@]([H])(N([H])C(=O)[C@@]([H])(N([H])C(=O)[C@@]([H])(N([H])C(=O)c2noc(C([H])([H])[H])c2[H])C([H])([H])[H])C([H])(C([H])([H])[H])C([H])([H])[H])C([H])([H])C([H])(C([H])([H])[H])C([H])([H])[H])C([H])([H])C([H])([H])C(=O)OC([H])([H])c2c([H])c([H])c([H])c([H])c2[H])C([H])([H])C([H])([H])[N+]1([H])[H]

$$$$
